Circuit: * A:\Bureau\Projet Robot Infirmier\spice moteur brushless\Draft3.asc

V16: Removing PWL point (0.001,0)
V16: Removing PWL point (0.005,3.3)
V16: Removing PWL point (0.007,0)
V15: Removing PWL point (0.002,3.3)
V15: Removing PWL point (0.004,0)
V15: Removing PWL point (0.008,3.3)
V15: Removing PWL point (0.01,0)
V14: Removing PWL point (0.001,0)
V14: Removing PWL point (0.003,3.3)
V14: Removing PWL point (0.005,0)
V14: Removing PWL point (0.009,3.3)
V13: Removing PWL point (0.002,0)
V13: Removing PWL point (0.006,3.3)
V13: Removing PWL point (0.008,0)
V12: Removing PWL point (0.001,3.3)
V12: Removing PWL point (0.003,0)
V12: Removing PWL point (0.007,3.3)
V12: Removing PWL point (0.009,0)
V7: Removing PWL point (0.001,0)
V7: Removing PWL point (0.004,3.3)
V7: Removing PWL point (0.006,0)
V7: Removing PWL point (0.01,3.3)
Direct Newton iteration for .op point succeeded.
Ignoring empty pin current: Ix(u6:5)
Ignoring empty pin current: Ix(u1:5)
Ignoring empty pin current: Ix(u2:5)
Ignoring empty pin current: Ix(u6:5)
Ignoring empty pin current: Ix(u1:5)
Ignoring empty pin current: Ix(u2:5)
Heightened Def Con from 0.00195 to 0.00195
Heightened Def Con from 0.00215 to 0.00215
Heightened Def Con from 0.00225 to 0.00225001
Heightened Def Con from 0.00245 to 0.00245001
Heightened Def Con from 0.00285 to 0.00285001
Heightened Def Con from 0.00295 to 0.00295001
Heightened Def Con from 0.00335 to 0.00335
Heightened Def Con from 0.00345 to 0.00345001
Heightened Def Con from 0.00355 to 0.00355001
Heightened Def Con from 0.00385 to 0.00385001
Heightened Def Con from 0.00405 to 0.00405
Heightened Def Con from 0.00425 to 0.00425001
Heightened Def Con from 0.00435 to 0.00435001
Heightened Def Con from 0.00495 to 0.00495001
Heightened Def Con from 0.00505 to 0.00505
Heightened Def Con from 0.00565 to 0.00565001
Heightened Def Con from 0.00575 to 0.00575001
Heightened Def Con from 0.00635 to 0.00635
Heightened Def Con from 0.00645 to 0.00645001
Heightened Def Con from 0.00665 to 0.00665001
Heightened Def Con from 0.00715 to 0.00715
Heightened Def Con from 0.00735 to 0.00735001
Heightened Def Con from 0.00775 to 0.00775001
Heightened Def Con from 0.00795 to 0.00795001
Heightened Def Con from 0.00835 to 0.00835
Heightened Def Con from 0.00845 to 0.00845001
Heightened Def Con from 0.00855 to 0.00855001
Heightened Def Con from 0.00865 to 0.00865001
Heightened Def Con from 0.00925 to 0.00925
Heightened Def Con from 0.00945 to 0.00945001
Heightened Def Con from 0.00955 to 0.00955001
Heightened Def Con from 0.00975 to 0.00975001
Heightened Def Con from 0.00995 to 0.00995001
Heightened Def Con from 0.01025 to 0.01025
Heightened Def Con from 0.01035 to 0.01035
Heightened Def Con from 0.01045 to 0.01045
Heightened Def Con from 0.01055 to 0.01055
Heightened Def Con from 0.01065 to 0.01065
Heightened Def Con from 0.01115 to 0.01115
Heightened Def Con from 0.01135 to 0.01135
Heightened Def Con from 0.01145 to 0.01145
Heightened Def Con from 0.01155 to 0.01155

Date: Wed Oct 06 21:05:47 2021
Total elapsed time: 10.178 seconds.

tnom = 27
temp = 27
method = modified trap
totiter = 296871
traniter = 296860
tranpoints = 88656
accept = 67885
rejected = 20813
matrix size = 106
fillins = 14
solver = Alternate
Thread vector: 25.0/9.4[3] 7.9/3.4[3] 1.8/1.3[3] 1.2/1.5[1]  2592/500
Matrix Compiler1: 6.75 KB object code size  2.2/1.2/[0.9]
Matrix Compiler2: 8.50 KB object code size  1.3/1.7/[0.9]

