Circuit: * C:\Users\thoma\Documents\GitHub\Projet5ArobotInfirmier\LTSpice\spice capteurs\Capteurs V1\capteurs.asc

WARNING: Less than two connections to node 12.  This node is used by V6.
Direct Newton iteration for .op point succeeded.

Date: Fri Oct 08 17:16:36 2021
Total elapsed time: 0.069 seconds.

tnom = 27
temp = 27
method = modified trap
totiter = 2134
traniter = 2120
tranpoints = 1047
accept = 1047
rejected = 0
matrix size = 28
fillins = 2
solver = Alternate
Matrix Compiler1: 1.11 KB object code size  0.5/0.3/[0.1]
Matrix Compiler2: 2.29 KB object code size  0.4/0.4/[0.3]

