Circuit: * C:\Users\thoma\Documents\GitHub\Projet5ArobotInfirmier\LTSpice\spice capteurs\Capteurs V1\capteurs.asc


Date: Fri Oct 08 15:54:52 2021
Total elapsed time: 0.062 seconds.

tnom = 27
temp = 27
method = trap
totiter = 187
traniter = 0
tranpoints = 0
accept = 0
rejected = 0
matrix size = 9
fillins = 1
solver = Alternate
Matrix Compiler1: 362 bytes object code size  0.1/0.1/[0.0]
Matrix Compiler2: 743 bytes object code size  0.1/0.1/[0.1]

