Circuit: * C:\Users\thoma\Documents\GitHub\Projet5ArobotInfirmier\LTSpice\spice capteurs\Capteurs V1\Draft1.asc

Direct Newton iteration for .op point succeeded.

Date: Thu Oct 14 09:51:00 2021
Total elapsed time: 4.307 seconds.

tnom = 27
temp = 27
method = modified trap
totiter = 1528699
traniter = 1528689
tranpoints = 515465
accept = 372857
rejected = 142608
matrix size = 10
fillins = 1
solver = Alternate
Matrix Compiler1: 528 bytes object code size  0.2/0.1/[0.1]
Matrix Compiler2: 810 bytes object code size  0.1/0.2/[0.1]

