Circuit: * C:\Users\paula\Desktop\LTspice\Draft3.asc

V16: Removing PWL point (0.001,0)
V16: Removing PWL point (0.005,3.3)
V16: Removing PWL point (0.007,0)
V15: Removing PWL point (0.002,3.3)
V15: Removing PWL point (0.004,0)
V15: Removing PWL point (0.008,3.3)
V15: Removing PWL point (0.01,0)
V14: Removing PWL point (0.001,0)
V14: Removing PWL point (0.003,3.3)
V14: Removing PWL point (0.005,0)
V14: Removing PWL point (0.009,3.3)
V13: Removing PWL point (0.002,0)
V13: Removing PWL point (0.006,3.3)
V13: Removing PWL point (0.008,0)
V12: Removing PWL point (0.001,3.3)
V12: Removing PWL point (0.003,0)
V12: Removing PWL point (0.007,3.3)
V12: Removing PWL point (0.009,0)
V7: Removing PWL point (0.001,0)
V7: Removing PWL point (0.004,3.3)
V7: Removing PWL point (0.006,0)
V7: Removing PWL point (0.01,3.3)
Direct Newton iteration for .op point succeeded.
Ignoring empty pin current: Ix(u6:5)
Ignoring empty pin current: Ix(u1:5)
Ignoring empty pin current: Ix(u2:5)
Ignoring empty pin current: Ix(u6:5)
Ignoring empty pin current: Ix(u1:5)
Ignoring empty pin current: Ix(u2:5)
Heightened Def Con from 0.0097 to 0.0097

Date: Thu Sep 30 17:43:14 2021
Total elapsed time: 4.756 seconds.

tnom = 27
temp = 27
method = modified trap
totiter = 243547
traniter = 243536
tranpoints = 75399
accept = 57442
rejected = 17958
matrix size = 106
fillins = 14
solver = Alternate
Thread vector: 12.5/7.0[3] 6.9/5.8[3] 1.1/0.8[2] 0.7/1.7[1]  2592/500
Matrix Compiler1: 6.75 KB object code size  2.1/1.0/[0.6]
Matrix Compiler2: 8.50 KB object code size  0.8/1.4/[0.6]

