Circuit: * A:\Bureau\Projet Robot Infirmier\spice alimentation\buck V1 fonctionnel\buckV1.asc

Direct Newton iteration failed to find .op point.  (Use ".option noopiter" to skip.)
Starting Gmin stepping
Gmin = 10
Gmin = 1.07374
Gmin = 0.115292
Gmin = 0.0123794
Gmin = 0.00132923
Gmin = 0.000142725
Gmin = 1.5325e-005
Gmin = 1.6455e-006
Gmin = 1.76685e-007
vernier = 0.5
vernier = 0.25
Gmin = 6.41063e-008
vernier = 0.333333
vernier = 0.444444
Gmin = 2.97567e-008
vernier = 0.592592
Gmin = 8.80658e-009
vernier = 0.790123
vernier = 1
Gmin = 1.33156e-009
Gmin = 1.42975e-010
Gmin = 1.53518e-011
Gmin = 1.64839e-012
Gmin = 1.76994e-013
Gmin = 0
Gmin stepping succeeded in finding the operating point.


Date: Thu Sep 30 18:07:05 2021
Total elapsed time: 1.401 seconds.

tnom = 27
temp = 27
method = modified trap
totiter = 101726
traniter = 101021
tranpoints = 31817
accept = 21343
rejected = 10474
matrix size = 19
fillins = 12
solver = Alternate
Matrix Compiler1: 1.64 KB object code size  0.5/0.3/[0.2]
Matrix Compiler2: 2.09 KB object code size  0.4/0.6/[0.4]

